Version 4
SHEET 1 880 680
WIRE 64 -32 -16 -32
WIRE 144 -32 64 -32
WIRE 224 -32 144 -32
WIRE 144 0 144 -32
WIRE 144 112 144 80
WIRE 224 112 224 -32
WIRE -16 192 -16 -32
WIRE 224 224 224 192
WIRE 288 224 224 224
WIRE 400 224 352 224
WIRE 432 224 400 224
WIRE 592 224 432 224
WIRE 224 272 224 224
WIRE 432 272 432 224
WIRE 592 272 592 224
WIRE 144 320 144 192
WIRE 160 320 144 320
WIRE -16 400 -16 272
WIRE 224 400 224 368
WIRE 224 400 -16 400
WIRE 432 400 432 336
WIRE 432 400 224 400
WIRE 592 400 592 336
WIRE 592 400 432 400
WIRE -16 432 -16 400
FLAG -16 432 0
FLAG 64 -32 VCC
FLAG 400 224 out
SYMBOL voltage -16 176 R0
WINDOW 123 0 0 Left 0
WINDOW 39 0 0 Left 0
SYMATTR InstName V1
SYMATTR Value 1
SYMBOL res 128 -16 R0
SYMATTR InstName R1
SYMATTR Value 1k
SYMBOL npn 160 272 R0
SYMATTR InstName Q1
SYMATTR Value BC337-25
SYMBOL ind2 160 96 M0
SYMATTR InstName L1
SYMATTR Value 40µ
SYMATTR Type ind
SYMBOL ind2 208 208 M180
WINDOW 0 36 80 Left 2
WINDOW 3 36 40 Left 2
SYMATTR InstName L2
SYMATTR Value 2.6m
SYMATTR Type ind
SYMBOL schottky 288 240 R270
WINDOW 0 32 32 VTop 2
WINDOW 3 0 32 VBottom 2
SYMATTR InstName D1
SYMATTR Value BAT54
SYMATTR Description Diode
SYMATTR Type diode
SYMBOL cap 416 272 R0
SYMATTR InstName C1
SYMATTR Value 10µ
SYMBOL zener 608 336 R180
WINDOW 0 24 64 Left 2
WINDOW 3 24 0 Left 2
SYMATTR InstName D2
SYMATTR Value 1N750
TEXT 56 -112 Left 2 !K L1 L2 1
TEXT -48 456 Left 2 !.tran 20m startup
