Version 4
SHEET 1 892 680
WIRE 32 -32 -16 -32
WIRE 160 -32 32 -32
WIRE 288 -32 160 -32
WIRE 432 -32 384 -32
WIRE 688 -32 432 -32
WIRE 720 -32 688 -32
WIRE 816 -32 720 -32
WIRE 160 144 160 -32
WIRE 208 144 160 144
WIRE 336 144 336 32
WIRE 336 144 288 144
WIRE 816 160 816 -32
WIRE 688 176 688 -32
WIRE -16 192 -16 -32
WIRE 336 304 336 144
WIRE 528 336 368 336
WIRE 688 336 688 256
WIRE 688 336 528 336
WIRE 688 368 688 336
WIRE -16 480 -16 272
WIRE 336 480 336 368
WIRE 336 480 -16 480
WIRE 688 480 688 448
WIRE 688 480 336 480
WIRE 816 480 816 224
WIRE 816 480 688 480
WIRE -16 512 -16 480
FLAG -16 512 0
FLAG 32 -32 VCC
FLAG 720 -32 o
FLAG 432 -32 a
FLAG 528 336 fb
SYMBOL voltage -16 176 R0
WINDOW 123 0 0 Left 0
WINDOW 39 0 0 Left 0
SYMATTR InstName V1
SYMATTR Value 5
SYMBOL cap 800 160 R0
SYMATTR InstName C1
SYMATTR Value 1m
SYMBOL npn 288 32 R270
SYMATTR InstName Q1
SYMATTR Value BC337-40
SYMBOL res 304 128 R90
WINDOW 0 0 56 VBottom 2
WINDOW 3 32 56 VTop 2
SYMATTR InstName R2
SYMATTR Value 10k
SYMBOL AutoGenerated\\TL431 336 336 R0
SYMATTR InstName U1
SYMBOL res 672 160 R0
SYMATTR InstName R3
SYMATTR Value 5.1k
SYMBOL res 672 352 R0
SYMATTR InstName R4
SYMATTR Value 6.8k
TEXT -48 536 Left 2 !.tran 1000m startup
TEXT 408 -152 Left 2 ;charging current equals 1C = 1.6A
