Version 4
SHEET 1 2464 1012
WIRE 32 -32 -16 -32
WIRE 96 -32 32 -32
WIRE 304 -32 176 -32
WIRE 400 -32 368 -32
WIRE 528 -32 400 -32
WIRE 864 -32 624 -32
WIRE 912 -32 864 -32
WIRE 1024 -32 912 -32
WIRE 1168 -32 1024 -32
WIRE 1280 -32 1168 -32
WIRE 1520 -32 1280 -32
WIRE 1632 -32 1520 -32
WIRE 112 16 64 16
WIRE 224 16 160 16
WIRE 1280 16 1280 -32
WIRE 1520 16 1520 -32
WIRE 64 48 64 16
WIRE 1392 64 1344 64
WIRE 1456 64 1392 64
WIRE 64 96 64 48
WIRE 96 96 64 96
WIRE 224 96 224 16
WIRE 224 96 176 96
WIRE 400 144 400 -32
WIRE 448 144 400 144
WIRE 576 144 576 32
WIRE 576 144 528 144
WIRE 1168 144 1168 -32
WIRE 1632 144 1632 -32
WIRE 1280 160 1280 112
WIRE 1520 160 1520 112
WIRE 864 176 864 -32
WIRE -16 192 -16 -32
WIRE 1280 192 1280 160
WIRE 1392 192 1392 64
WIRE 1392 192 1280 192
WIRE 1024 256 1024 -32
WIRE 1280 272 1280 192
WIRE 1520 272 1520 160
WIRE 576 304 576 144
WIRE 1168 320 1168 224
WIRE 1216 320 1168 320
WIRE 1632 320 1632 224
WIRE 1632 320 1584 320
WIRE 768 336 608 336
WIRE 864 336 864 256
WIRE 864 336 768 336
WIRE 864 368 864 336
WIRE 1632 400 1632 320
WIRE 1280 416 1280 368
WIRE 1408 416 1280 416
WIRE 1520 416 1520 368
WIRE 1520 416 1408 416
WIRE 1168 448 1168 320
WIRE 1408 464 1408 416
WIRE -16 560 -16 272
WIRE 224 560 224 96
WIRE 224 560 -16 560
WIRE 576 560 576 368
WIRE 576 560 224 560
WIRE 864 560 864 448
WIRE 864 560 576 560
WIRE 1024 560 1024 320
WIRE 1024 560 864 560
WIRE 1168 560 1168 528
WIRE 1168 560 1024 560
WIRE 1408 560 1408 544
WIRE 1408 560 1168 560
WIRE 1632 560 1632 480
WIRE 1632 560 1408 560
WIRE -16 592 -16 560
WIRE 864 832 864 800
WIRE 864 864 864 832
WIRE 864 992 864 944
FLAG -16 592 0
FLAG 32 -32 VCC
FLAG 768 336 fb
FLAG 64 48 SUN
FLAG 912 -32 bat
FLAG 864 992 0
FLAG 1280 160 X
FLAG 1520 160 Y
FLAG 864 832 14V
SYMBOL voltage -16 176 R0
WINDOW 123 0 0 Left 0
WINDOW 39 0 0 Left 0
SYMATTR InstName V1
SYMATTR Value 12
SYMBOL npn 528 32 R270
SYMATTR InstName Q1
SYMATTR Value BC337-40
SYMBOL res 544 128 R90
WINDOW 0 0 56 VBottom 2
WINDOW 3 32 56 VTop 2
SYMATTR InstName R2
SYMATTR Value 5.1k
SYMBOL AutoGenerated\\TL431 576 336 R0
SYMATTR InstName U1
SYMBOL res 848 160 R0
SYMATTR InstName R3
SYMATTR Value 5.1k
SYMBOL res 848 352 R0
SYMATTR InstName R4
SYMATTR Value 6.8k
SYMBOL schottky 304 -16 R270
WINDOW 0 32 32 VTop 2
WINDOW 3 0 32 VBottom 2
SYMATTR InstName D4
SYMATTR Value SS14
SYMATTR Description Diode
SYMATTR Type diode
SYMBOL sw 192 -32 M270
SYMATTR InstName S1
SYMATTR Value SW1
SYMBOL voltage 80 96 R270
WINDOW 0 32 56 VTop 2
WINDOW 3 -226 135 VBottom 2
WINDOW 123 0 0 Left 0
WINDOW 39 0 0 Left 0
SYMATTR InstName V2
SYMATTR Value PULSE(0 1 0 1u 1u 700m 2)
SYMBOL cap 1008 256 R0
SYMATTR InstName C1
SYMATTR Value 10m
SYMBOL bv 864 848 R0
SYMATTR InstName B1
SYMATTR Value V=IF(V(bat)>2, 14,0)
SYMBOL npn 1216 272 R0
SYMATTR InstName Q2
SYMATTR Value BC337-40
SYMBOL npn 1584 272 M0
SYMATTR InstName Q3
SYMATTR Value BC337-40
SYMBOL res 1392 448 R0
SYMATTR InstName R6
SYMATTR Value 6.8k
SYMBOL res 1152 432 R0
SYMATTR InstName R8
SYMATTR Value {LDR}
SYMBOL res 1648 128 M0
SYMATTR InstName R10
SYMATTR Value 100k
SYMBOL pnp 1344 112 R180
SYMATTR InstName Q4
SYMATTR Value BC327-25
SYMBOL pnp 1456 112 M180
SYMATTR InstName Q5
SYMATTR Value BC327-40
SYMBOL res 1616 384 R0
SYMATTR InstName R1
SYMATTR Value 100k
SYMBOL res 1152 128 R0
SYMATTR InstName R5
SYMATTR Value 100k
TEXT -48 616 Left 2 !.tran 1300m startup
TEXT -24 -160 Left 2 !.model SW1 SW(Ron=1m Roff=10Meg Vt=.5 Vh=-.4)
TEXT -16 -272 Left 2 !.meas TRAN C1_RMS RMS I(c1)
TEXT 848 664 Left 2 !.meas TRAN I_IN RMS (I(C1)) FROM 390m
TEXT -16 -200 Left 2 !.MODEL SS14 D IS=8.696e-05 N=1.5 RS=2.2030e-2 CJO=2.2854e-10 M=0.4517 VJ=0.4905 BV=40 IBV=2.5e-4 EG=0.68 TT=1.0e-8 Iave=1 Vpk=40 mfg=Fairchild type=Schottky
TEXT 0 744 Left 2 ;- Solar panel limited to 5V@110mA therefore current does not have to be controlled
TEXT 976 -72 Left 2 ;switch
TEXT 1424 632 Left 2 ;LDR \ndark increase resistance\nclear reduces resistance
TEXT 1144 -456 Left 2 !.step param LDR list 1k 150k\n.step param R_S list 1k 10k 100k
TEXT 1296 -128 Left 2 !.meas tran out RMS V(y) from 1
