Version 4
SHEET 1 2464 760
WIRE 32 -32 -16 -32
WIRE 96 -32 32 -32
WIRE 304 -32 176 -32
WIRE 400 -32 368 -32
WIRE 528 -32 400 -32
WIRE 672 -32 624 -32
WIRE 688 -32 672 -32
WIRE 704 -32 688 -32
WIRE 848 -32 784 -32
WIRE 928 -32 848 -32
WIRE 1008 -32 928 -32
WIRE 1168 -32 1072 -32
WIRE 1232 -32 1168 -32
WIRE 1360 -32 1232 -32
WIRE 1536 -32 1456 -32
WIRE 1632 -32 1536 -32
WIRE 1744 -32 1632 -32
WIRE 112 16 64 16
WIRE 224 16 160 16
WIRE 64 48 64 16
WIRE 1632 48 1632 -32
WIRE 688 80 688 -32
WIRE 64 96 64 48
WIRE 96 96 64 96
WIRE 224 96 224 16
WIRE 224 96 176 96
WIRE 1168 96 1168 -32
WIRE 1264 96 1168 96
WIRE 1408 96 1408 32
WIRE 1408 96 1344 96
WIRE 400 144 400 -32
WIRE 448 144 400 144
WIRE 576 144 576 32
WIRE 576 144 528 144
WIRE 640 144 576 144
WIRE 848 144 848 -32
WIRE 848 144 736 144
WIRE 1168 160 1168 96
WIRE 1632 160 1632 128
WIRE 1744 160 1744 -32
WIRE 928 176 928 -32
WIRE -16 192 -16 -32
WIRE 1408 192 1408 96
WIRE 1408 224 1408 192
WIRE 1488 224 1408 224
WIRE 1488 256 1488 224
WIRE 1744 272 1744 240
WIRE 1792 272 1744 272
WIRE 1856 272 1792 272
WIRE 2160 272 1920 272
WIRE 2256 272 2160 272
WIRE 2384 272 2256 272
WIRE 2400 272 2384 272
WIRE 2416 272 2400 272
WIRE 576 304 576 144
WIRE 2256 320 2256 272
WIRE 768 336 608 336
WIRE 928 336 928 256
WIRE 928 336 768 336
WIRE 1408 336 1408 224
WIRE 2384 352 2384 272
WIRE 928 368 928 336
WIRE 1488 368 1488 320
WIRE 1488 368 1440 368
WIRE 1520 368 1488 368
WIRE 2160 368 2160 272
WIRE 2160 368 1600 368
WIRE 1744 400 1744 272
WIRE 1488 448 1488 368
WIRE 1632 448 1632 240
WIRE 1680 448 1632 448
WIRE -16 560 -16 272
WIRE 224 560 224 96
WIRE 224 560 -16 560
WIRE 576 560 576 368
WIRE 576 560 224 560
WIRE 928 560 928 448
WIRE 928 560 576 560
WIRE 1168 560 1168 224
WIRE 1168 560 928 560
WIRE 1408 560 1408 400
WIRE 1408 560 1168 560
WIRE 1488 560 1488 528
WIRE 1488 560 1408 560
WIRE 1744 560 1744 496
WIRE 1744 560 1488 560
WIRE 2256 560 2256 384
WIRE 2256 560 1744 560
WIRE 2384 560 2384 432
WIRE 2384 560 2256 560
WIRE -16 592 -16 560
FLAG -16 592 0
FLAG 32 -32 VCC
FLAG 1232 -32 bat
FLAG 672 -32 a
FLAG 768 336 fb
FLAG 2400 272 out
FLAG 1792 272 c1
FLAG 1408 192 bs
FLAG 1536 -32 JT1
FLAG 64 48 SUN
SYMBOL voltage -16 176 R0
WINDOW 123 0 0 Left 0
WINDOW 39 0 0 Left 0
SYMATTR InstName V1
SYMATTR Value 5
SYMBOL cap 1152 160 R0
SYMATTR InstName C1
SYMATTR Value 1m
SYMBOL npn 528 32 R270
SYMATTR InstName Q1
SYMATTR Value 2N3904
SYMBOL res 800 -48 R90
WINDOW 0 0 56 VBottom 2
WINDOW 3 32 56 VTop 2
SYMATTR InstName R1
SYMATTR Value 10
SYMBOL res 544 128 R90
WINDOW 0 0 56 VBottom 2
WINDOW 3 32 56 VTop 2
SYMATTR InstName R2
SYMATTR Value 10k
SYMBOL npn 640 80 M90
SYMATTR InstName Q2
SYMATTR Value 2N3904
SYMBOL AutoGenerated\\TL431 576 336 R0
SYMATTR InstName U1
SYMBOL res 912 160 R0
SYMATTR InstName R3
SYMATTR Value 5600
SYMBOL res 912 352 R0
SYMATTR InstName R4
SYMATTR Value 10e3
SYMBOL res 1616 32 R0
SYMATTR InstName R5
SYMATTR Value 1k
SYMBOL npn 1680 400 R0
SYMATTR InstName Q3
SYMATTR Value 2N2222
SYMBOL ind2 1648 144 M0
WINDOW 39 27 1 Left 2
SYMATTR InstName L1
SYMATTR Value 45µ
SYMATTR Type ind
SYMATTR SpiceLine Rser=0.11
SYMBOL ind2 1728 256 M180
WINDOW 0 36 80 Left 2
WINDOW 3 36 40 Left 2
WINDOW 39 32 113 Left 2
SYMATTR InstName L2
SYMATTR Value 3.1m
SYMATTR Type ind
SYMATTR SpiceLine Rser=6.1
SYMBOL schottky 1856 288 R270
WINDOW 0 32 32 VTop 2
WINDOW 3 0 32 VBottom 2
SYMATTR InstName D1
SYMATTR Value BAT54
SYMATTR Description Diode
SYMATTR Type diode
SYMBOL cap 2240 320 R0
SYMATTR InstName C2
SYMATTR Value 10µ
SYMBOL schottky 304 -16 R270
WINDOW 0 32 32 VTop 2
WINDOW 3 0 32 VBottom 2
SYMATTR InstName D4
SYMATTR Value RB411D
SYMATTR Description Diode
SYMATTR Type diode
SYMBOL schottky 1008 -16 R270
WINDOW 0 32 32 VTop 2
WINDOW 3 0 32 VBottom 2
SYMATTR InstName D5
SYMATTR Value RB411D
SYMATTR Description Diode
SYMATTR Type diode
SYMBOL sw 192 -32 M270
SYMATTR InstName S1
SYMATTR Value SW1
SYMBOL voltage 80 96 R270
WINDOW 0 32 56 VTop 2
WINDOW 3 -226 135 VBottom 2
WINDOW 123 0 0 Left 0
WINDOW 39 0 0 Left 0
SYMATTR InstName V2
SYMATTR Value PULSE(0 1 0 1u 1u 300m 2)
SYMBOL AutoGenerated\\TL431 1408 368 R0
SYMATTR InstName U2
SYMBOL npn 1360 32 R270
SYMATTR InstName Q4
SYMATTR Value 2N3904
SYMBOL res 1360 80 R90
WINDOW 0 0 56 VBottom 2
WINDOW 3 32 56 VTop 2
SYMATTR InstName R6
SYMATTR Value 100k
SYMBOL res 1472 432 R0
SYMATTR InstName R7
SYMATTR Value {RF}
SYMBOL res 1616 352 R90
WINDOW 0 0 56 VBottom 2
WINDOW 3 32 56 VTop 2
SYMATTR InstName R8
SYMATTR Value {RF}
SYMBOL cap 1472 256 R0
SYMATTR InstName C3
SYMATTR Value {Rc}
SYMBOL res 2368 336 R0
SYMATTR InstName R9
SYMATTR Value {RL}
TEXT -48 616 Left 2 !.tran 500m startup
TEXT -24 -208 Left 2 !.model SW1 SW(Ron=1m Roff=10Meg Vt=.5 Vh=-.4)
TEXT -24 -248 Left 2 !K L1 L2 1
TEXT 784 -176 Left 2 !;.step param RF list 10k 51k 100k\n.param RF 51k\n.param Rc 10n\n.step param RL list 1k 1e6
TEXT 240 -472 Left 2 !.meas TRAN C1_RMS RMS I(c1)
TEXT 848 664 Left 2 !.meas TRAN I_IN RMS (I(C1)) FROM 390m
